/*--------------------------------*- C++ -*----------------------------------*\
| =========                 |                                                 |
| \\      /  F ield         | OpenFOAM: The Open Source CFD Toolbox           |
|  \\    /   O peration     | Version:  2012                                  |
|   \\  /    A nd           | Website:  www.openfoam.com                      |
|    \\/     M anipulation  |                                                 |
\*---------------------------------------------------------------------------*/
FoamFile
{
    version     2.0;
    format      ascii;
    class       surfaceScalarField;
    location    "constant";
    object      OmegaS;
}
// * * * * * * * * * * * * * * * * * * * * * * * * * * * * * * * * * * * * * //

dimensions      [0 3 0 0 0 0 0];


internalField   nonuniform List<scalar> 
3120
(
0.000413539146
0.000413539146
0.000450095346
0.000450095346
0.000489883055
0.000489883055
0.000533187933
0.000533187934
0.000580320893
0.000580320894
0.000631620332
0.000631620332
0.00068745456
0.000687454559
0.000748224444
0.000748224444
0.000814366288
0.000814366289
0.000886354965
0.000886354966
0.000964707326
0.000964707326
0.00104998591
0.00104998591
0.00114280299
0.00114280299
0.00124382494
0.00124382494
0.00135377708
0.00135377708
0.00147344881
0.00147344881
0.00160369933
0.00160369933
0.00174546378
0.00174546378
0.00189975999
0.00189975999
0.00206769573
0.00198017364
0.000450095346
0.000450095346
0.000489883055
0.000489883055
0.000533187934
0.000533187934
0.000580320894
0.000580320895
0.000631620332
0.000631620333
0.000687454559
0.00068745456
0.000748224444
0.000748224443
0.000814366289
0.000814366289
0.000886354966
0.000886354967
0.000964707327
0.000964707328
0.00104998591
0.00104998591
0.00114280299
0.00114280299
0.00124382494
0.00124382494
0.00135377708
0.00135377708
0.00147344881
0.00147344881
0.00160369933
0.00160369933
0.00174546378
0.00174546378
0.00189975999
0.00189975999
0.00206769573
0.00206769573
0.00225047673
0.00215521783
0.000489883055
0.000489883055
0.000533187934
0.000533187934
0.000580320895
0.000580320895
0.000631620334
0.000631620335
0.00068745456
0.000687454561
0.000748224444
0.000748224444
0.000814366289
0.000814366288
0.000886354967
0.000886354967
0.000964707329
0.000964707329
0.00104998591
0.00104998591
0.00114280299
0.00114280299
0.00124382494
0.00124382495
0.00135377708
0.00135377708
0.00147344881
0.00147344881
0.00160369933
0.00160369933
0.00174546378
0.00174546378
0.00189975999
0.00189975999
0.00206769574
0.00206769574
0.00225047673
0.00225047673
0.00244941528
0.00234573564
0.000533187934
0.000533187933
0.000580320895
0.000580320894
0.000631620335
0.000631620334
0.000687454562
0.000687454562
0.000748224445
0.000748224444
0.000814366288
0.000814366288
0.000886354967
0.000886354965
0.000964707329
0.000964707328
0.00104998591
0.00104998591
0.00114280299
0.00114280299
0.00124382494
0.00124382494
0.00135377708
0.00135377708
0.00147344881
0.00147344881
0.00160369933
0.00160369933
0.00174546378
0.00174546378
0.00189975999
0.00189975999
0.00206769574
0.00206769574
0.00225047673
0.00225047673
0.00244941528
0.00244941528
0.00266593967
0.00255309492
0.000580320894
0.000580320893
0.000631620333
0.000631620332
0.000687454561
0.00068745456
0.000748224444
0.000748224445
0.000814366288
0.000814366288
0.000886354965
0.000886354964
0.000964707327
0.000964707325
0.00104998591
0.00104998591
0.00114280299
0.00114280299
0.00124382494
0.00124382494
0.00135377708
0.00135377708
0.00147344881
0.00147344881
0.00160369933
0.00160369933
0.00174546378
0.00174546378
0.00189975999
0.00189975999
0.00206769573
0.00206769573
0.00225047673
0.00225047673
0.00244941527
0.00244941527
0.00266593967
0.00266593966
0.00290160447
0.00277878442
0.000631620332
0.000631620332
0.00068745456
0.000687454559
0.000748224444
0.000748224444
0.000814366288
0.000814366288
0.000886354964
0.000886354965
0.000964707325
0.000964707325
0.00104998591
0.00104998591
0.00114280299
0.00114280299
0.00124382494
0.00124382494
0.00135377708
0.00135377708
0.00147344881
0.00147344881
0.00160369932
0.00160369932
0.00174546378
0.00174546378
0.00189975999
0.00189975999
0.00206769573
0.00206769573
0.00225047673
0.00225047673
0.00244941527
0.00244941527
0.00266593966
0.00266593967
0.00290160447
0.00290160447
0.00315810166
0.00302442452
0.000687454559
0.00068745456
0.000748224443
0.000748224444
0.000814366288
0.000814366289
0.000886354965
0.000886354967
0.000964707325
0.000964707327
0.00104998591
0.00104998591
0.00114280299
0.00114280299
0.00124382494
0.00124382494
0.00135377708
0.00135377708
0.00147344881
0.00147344881
0.00160369932
0.00160369932
0.00174546378
0.00174546378
0.00189975999
0.00189975999
0.00206769573
0.00206769574
0.00225047673
0.00225047673
0.00244941527
0.00244941527
0.00266593966
0.00266593967
0.00290160447
0.00290160447
0.00315810166
0.00315810166
0.0034372728
0.00329177881
0.000748224444
0.000748224444
0.000814366289
0.000814366289
0.000886354967
0.000886354967
0.000964707328
0.000964707329
0.00104998591
0.00104998591
0.00114280299
0.00114280299
0.00124382494
0.00124382494
0.00135377708
0.00135377708
0.00147344881
0.00147344881
0.00160369933
0.00160369933
0.00174546378
0.00174546378
0.00189975999
0.00189975999
0.00206769574
0.00206769574
0.00225047673
0.00225047673
0.00244941528
0.00244941528
0.00266593967
0.00266593967
0.00290160447
0.00290160447
0.00315810167
0.00315810167
0.0034372728
0.0034372728
0.00374112222
0.0035827668
0.000814366289
0.000814366288
0.000886354967
0.000886354966
0.000964707329
0.000964707329
0.00104998591
0.00104998591
0.00114280299
0.00114280299
0.00124382494
0.00124382494
0.00135377708
0.00135377708
0.00147344881
0.00147344881
0.00160369933
0.00160369933
0.00174546378
0.00174546379
0.00189975999
0.00189975999
0.00206769574
0.00206769574
0.00225047673
0.00225047673
0.00244941528
0.00244941528
0.00266593967
0.00266593967
0.00290160447
0.00290160447
0.00315810167
0.00315810167
0.00343727281
0.00343727281
0.00374112222
0.00374112222
0.00407183144
0.00389947765
0.000886354966
0.000886354965
0.000964707328
0.000964707327
0.00104998591
0.00104998591
0.00114280299
0.00114280299
0.00124382494
0.00124382494
0.00135377708
0.00135377708
0.00147344881
0.00147344881
0.00160369933
0.00160369933
0.00174546379
0.00174546378
0.00189975999
0.00189975999
0.00206769573
0.00206769573
0.00225047673
0.00225047673
0.00244941528
0.00244941527
0.00266593967
0.00266593967
0.00290160447
0.00290160447
0.00315810167
0.00315810166
0.00343727281
0.0034372728
0.00374112222
0.00374112222
0.00407183144
0.00407183144
0.00443177483
0.00424418524
0.000964707326
0.000964707326
0.00104998591
0.00104998591
0.00114280299
0.00114280299
0.00124382494
0.00124382494
0.00135377708
0.00135377708
0.00147344881
0.00147344881
0.00160369932
0.00160369932
0.00174546378
0.00174546378
0.00189975999
0.00189975999
0.00206769573
0.00206769573
0.00225047673
0.00225047673
0.00244941527
0.00244941527
0.00266593967
0.00266593967
0.00290160447
0.00290160447
0.00315810166
0.00315810166
0.0034372728
0.0034372728
0.00374112222
0.00374112222
0.00407183144
0.00407183144
0.00443177482
0.00443177482
0.00482353663
0.00461936442
0.00104998591
0.00104998591
0.00114280299
0.00114280299
0.00124382495
0.00124382494
0.00135377708
0.00135377708
0.00147344881
0.00147344881
0.00160369932
0.00160369932
0.00174546378
0.00174546378
0.00189975999
0.00189975999
0.00206769574
0.00206769574
0.00225047673
0.00225047673
0.00244941527
0.00244941527
0.00266593967
0.00266593967
0.00290160447
0.00290160447
0.00315810167
0.00315810167
0.0034372728
0.0034372728
0.00374112222
0.00374112222
0.00407183144
0.00407183144
0.00443177483
0.00443177483
0.00482353663
0.00482353663
0.00524992956
0.00502770885
0.00114280299
0.00114280299
0.00124382494
0.00124382494
0.00135377708
0.00135377708
0.00147344881
0.00147344881
0.00160369933
0.00160369933
0.00174546378
0.00174546378
0.00189975999
0.00189975999
0.00206769574
0.00206769574
0.00225047673
0.00225047673
0.00244941527
0.00244941528
0.00266593967
0.00266593967
0.00290160447
0.00290160447
0.00315810167
0.00315810167
0.0034372728
0.0034372728
0.00374112222
0.00374112222
0.00407183144
0.00407183144
0.00443177483
0.00443177483
0.00482353664
0.00482353664
0.00524992956
0.00524992956
0.00571401494
0.00547215027
0.00124382494
0.00124382494
0.00135377708
0.00135377708
0.00147344881
0.00147344881
0.00160369933
0.00160369933
0.00174546378
0.00174546378
0.00189975999
0.00189975999
0.00206769574
0.00206769573
0.00225047673
0.00225047673
0.00244941528
0.00244941528
0.00266593967
0.00266593967
0.00290160447
0.00290160447
0.00315810167
0.00315810167
0.0034372728
0.0034372728
0.00374112222
0.00374112222
0.00407183144
0.00407183144
0.00443177483
0.00443177483
0.00482353664
0.00482353664
0.00524992957
0.00524992957
0.00571401494
0.00571401494
0.00621912472
0.00595587961
0.00135377708
0.00135377708
0.00147344881
0.00147344881
0.00160369933
0.00160369933
0.00174546378
0.00174546378
0.00189975999
0.00189975999
0.00206769573
0.00206769573
0.00225047673
0.00225047673
0.00244941528
0.00244941528
0.00266593967
0.00266593967
0.00290160447
0.00290160447
0.00315810166
0.00315810166
0.0034372728
0.0034372728
0.00374112222
0.00374112222
0.00407183144
0.00407183144
0.00443177483
0.00443177483
0.00482353664
0.00482353663
0.00524992956
0.00524992956
0.00571401494
0.00571401494
0.00621912472
0.00621912472
0.0067688854
0.00648236984
0.00147344881
0.00147344881
0.00160369933
0.00160369933
0.00174546378
0.00174546378
0.00189975999
0.00189975999
0.00206769573
0.00206769573
0.00225047673
0.00225047673
0.00244941527
0.00244941527
0.00266593967
0.00266593967
0.00290160447
0.00290160447
0.00315810166
0.00315810167
0.0034372728
0.0034372728
0.00374112222
0.00374112222
0.00407183144
0.00407183144
0.00443177483
0.00443177483
0.00482353663
0.00482353664
0.00524992955
0.00524992955
0.00571401493
0.00571401493
0.00621912472
0.00621912472
0.00676888539
0.00676888539
0.00736724404
0.00705540095
0.00160369933
0.00160369933
0.00174546378
0.00174546378
0.00189975999
0.00189975999
0.00206769574
0.00206769574
0.00225047673
0.00225047673
0.00244941527
0.00244941527
0.00266593967
0.00266593966
0.00290160447
0.00290160447
0.00315810167
0.00315810167
0.0034372728
0.00343727281
0.00374112222
0.00374112222
0.00407183144
0.00407183144
0.00443177483
0.00443177483
0.00482353664
0.00482353664
0.00524992956
0.00524992956
0.00571401493
0.00571401493
0.00621912472
0.00621912472
0.0067688854
0.00676888541
0.00736724404
0.00736724404
0.00801849664
0.00767908712
0.00174546378
0.00174546378
0.00189975999
0.00189975999
0.00206769574
0.00206769574
0.00225047673
0.00225047673
0.00244941527
0.00244941527
0.00266593967
0.00266593966
0.00290160447
0.00290160447
0.00315810167
0.00315810167
0.00343727281
0.00343727281
0.00374112222
0.00374112222
0.00407183144
0.00407183144
0.00443177483
0.00443177483
0.00482353664
0.00482353664
0.00524992957
0.00524992957
0.00571401494
0.00571401494
0.00621912472
0.00621912472
0.00676888541
0.0067688854
0.00736724405
0.00736724405
0.00801849664
0.00801849663
0.00872731892
0.00835790615
0.00189975999
0.00189975999
0.00206769573
0.00206769573
0.00225047673
0.00225047673
0.00244941528
0.00244941528
0.00266593966
0.00266593967
0.00290160447
0.00290160447
0.00315810166
0.00315810166
0.0034372728
0.0034372728
0.00374112222
0.00374112222
0.00407183144
0.00407183144
0.00443177482
0.00443177482
0.00482353663
0.00482353663
0.00524992956
0.00524992956
0.00571401494
0.00571401494
0.00621912472
0.00621912472
0.00676888539
0.00676888539
0.00736724404
0.00736724404
0.00801849663
0.00801849664
0.00872731891
0.00872731891
0.00949879995
0.00909673168
0.00206769573
0.00198017364
0.00225047673
0.00215521783
0.00244941528
0.00234573564
0.00266593967
0.00255309492
0.00290160447
0.00277878442
0.00315810166
0.00302442452
0.0034372728
0.00329177881
0.00374112222
0.0035827668
0.00407183144
0.00389947765
0.00443177483
0.00424418524
0.00482353663
0.00461936442
0.00524992956
0.00502770885
0.00571401494
0.00547215027
0.00621912472
0.00595587961
0.0067688854
0.00648236984
0.00736724404
0.00705540095
0.00801849664
0.00767908712
0.00872731892
0.00835790615
0.00949879995
0.00909673168
0.00990086821
0.00990086821
0.00189975999
0.00206769573
0.00174546378
0.00189975999
0.00160369933
0.00174546378
0.00147344881
0.00160369933
0.00135377708
0.00147344881
0.00124382494
0.00135377708
0.00114280299
0.00124382494
0.00104998591
0.00114280299
0.000964707326
0.00104998591
0.000886354965
0.000964707326
0.000814366288
0.000886354966
0.000748224444
0.000814366289
0.00068745456
0.000748224444
0.000631620332
0.000687454559
0.000580320893
0.000631620332
0.000533187933
0.000580320894
0.000489883055
0.000533187934
0.000450095346
0.000489883055
0.000413539146
0.000450095346
0.000413539146
0.00206769573
0.00225047673
0.00189975999
0.00206769573
0.00174546378
0.00189975999
0.00160369933
0.00174546378
0.00147344881
0.00160369933
0.00135377708
0.00147344881
0.00124382494
0.00135377708
0.00114280299
0.00124382494
0.00104998591
0.00114280299
0.000964707327
0.00104998591
0.000886354966
0.000964707328
0.000814366289
0.000886354967
0.000748224444
0.000814366289
0.000687454559
0.000748224443
0.000631620332
0.00068745456
0.000580320894
0.000631620333
0.000533187934
0.000580320895
0.000489883055
0.000533187934
0.000450095346
0.000489883055
0.000450095346
0.00225047673
0.00244941528
0.00206769574
0.00225047673
0.00189975999
0.00206769574
0.00174546378
0.00189975999
0.00160369933
0.00174546378
0.00147344881
0.00160369933
0.00135377708
0.00147344881
0.00124382494
0.00135377708
0.00114280299
0.00124382495
0.00104998591
0.00114280299
0.000964707329
0.00104998591
0.000886354967
0.000964707329
0.000814366289
0.000886354967
0.000748224444
0.000814366288
0.00068745456
0.000748224444
0.000631620334
0.000687454561
0.000580320895
0.000631620335
0.000533187934
0.000580320895
0.000489883055
0.000533187934
0.000489883055
0.00244941528
0.00266593967
0.00225047673
0.00244941528
0.00206769574
0.00225047673
0.00189975999
0.00206769574
0.00174546378
0.00189975999
0.00160369933
0.00174546378
0.00147344881
0.00160369933
0.00135377708
0.00147344881
0.00124382494
0.00135377708
0.00114280299
0.00124382494
0.00104998591
0.00114280299
0.000964707329
0.00104998591
0.000886354967
0.000964707328
0.000814366288
0.000886354965
0.000748224445
0.000814366288
0.000687454562
0.000748224444
0.000631620335
0.000687454562
0.000580320895
0.000631620334
0.000533187934
0.000580320894
0.000533187933
0.00266593967
0.00290160447
0.00244941527
0.00266593966
0.00225047673
0.00244941527
0.00206769573
0.00225047673
0.00189975999
0.00206769573
0.00174546378
0.00189975999
0.00160369933
0.00174546378
0.00147344881
0.00160369933
0.00135377708
0.00147344881
0.00124382494
0.00135377708
0.00114280299
0.00124382494
0.00104998591
0.00114280299
0.000964707327
0.00104998591
0.000886354965
0.000964707325
0.000814366288
0.000886354964
0.000748224444
0.000814366288
0.000687454561
0.000748224445
0.000631620333
0.00068745456
0.000580320894
0.000631620332
0.000580320893
0.00290160447
0.00315810166
0.00266593966
0.00290160447
0.00244941527
0.00266593967
0.00225047673
0.00244941527
0.00206769573
0.00225047673
0.00189975999
0.00206769573
0.00174546378
0.00189975999
0.00160369932
0.00174546378
0.00147344881
0.00160369932
0.00135377708
0.00147344881
0.00124382494
0.00135377708
0.00114280299
0.00124382494
0.00104998591
0.00114280299
0.000964707325
0.00104998591
0.000886354964
0.000964707325
0.000814366288
0.000886354965
0.000748224444
0.000814366288
0.00068745456
0.000748224444
0.000631620332
0.000687454559
0.000631620332
0.00315810166
0.0034372728
0.00290160447
0.00315810166
0.00266593966
0.00290160447
0.00244941527
0.00266593967
0.00225047673
0.00244941527
0.00206769573
0.00225047673
0.00189975999
0.00206769574
0.00174546378
0.00189975999
0.00160369932
0.00174546378
0.00147344881
0.00160369932
0.00135377708
0.00147344881
0.00124382494
0.00135377708
0.00114280299
0.00124382494
0.00104998591
0.00114280299
0.000964707325
0.00104998591
0.000886354965
0.000964707327
0.000814366288
0.000886354967
0.000748224443
0.000814366289
0.000687454559
0.000748224444
0.00068745456
0.0034372728
0.00374112222
0.00315810167
0.0034372728
0.00290160447
0.00315810167
0.00266593967
0.00290160447
0.00244941528
0.00266593967
0.00225047673
0.00244941528
0.00206769574
0.00225047673
0.00189975999
0.00206769574
0.00174546378
0.00189975999
0.00160369933
0.00174546378
0.00147344881
0.00160369933
0.00135377708
0.00147344881
0.00124382494
0.00135377708
0.00114280299
0.00124382494
0.00104998591
0.00114280299
0.000964707328
0.00104998591
0.000886354967
0.000964707329
0.000814366289
0.000886354967
0.000748224444
0.000814366289
0.000748224444
0.00374112222
0.00407183144
0.00343727281
0.00374112222
0.00315810167
0.00343727281
0.00290160447
0.00315810167
0.00266593967
0.00290160447
0.00244941528
0.00266593967
0.00225047673
0.00244941528
0.00206769574
0.00225047673
0.00189975999
0.00206769574
0.00174546378
0.00189975999
0.00160369933
0.00174546379
0.00147344881
0.00160369933
0.00135377708
0.00147344881
0.00124382494
0.00135377708
0.00114280299
0.00124382494
0.00104998591
0.00114280299
0.000964707329
0.00104998591
0.000886354967
0.000964707329
0.000814366289
0.000886354966
0.000814366288
0.00407183144
0.00443177483
0.00374112222
0.00407183144
0.00343727281
0.00374112222
0.00315810167
0.0034372728
0.00290160447
0.00315810166
0.00266593967
0.00290160447
0.00244941528
0.00266593967
0.00225047673
0.00244941527
0.00206769573
0.00225047673
0.00189975999
0.00206769573
0.00174546379
0.00189975999
0.00160369933
0.00174546378
0.00147344881
0.00160369933
0.00135377708
0.00147344881
0.00124382494
0.00135377708
0.00114280299
0.00124382494
0.00104998591
0.00114280299
0.000964707328
0.00104998591
0.000886354966
0.000964707327
0.000886354965
0.00443177482
0.00482353663
0.00407183144
0.00443177482
0.00374112222
0.00407183144
0.0034372728
0.00374112222
0.00315810166
0.0034372728
0.00290160447
0.00315810166
0.00266593967
0.00290160447
0.00244941527
0.00266593967
0.00225047673
0.00244941527
0.00206769573
0.00225047673
0.00189975999
0.00206769573
0.00174546378
0.00189975999
0.00160369932
0.00174546378
0.00147344881
0.00160369932
0.00135377708
0.00147344881
0.00124382494
0.00135377708
0.00114280299
0.00124382494
0.00104998591
0.00114280299
0.000964707326
0.00104998591
0.000964707326
0.00482353663
0.00524992956
0.00443177483
0.00482353663
0.00407183144
0.00443177483
0.00374112222
0.00407183144
0.0034372728
0.00374112222
0.00315810167
0.0034372728
0.00290160447
0.00315810167
0.00266593967
0.00290160447
0.00244941527
0.00266593967
0.00225047673
0.00244941527
0.00206769574
0.00225047673
0.00189975999
0.00206769574
0.00174546378
0.00189975999
0.00160369932
0.00174546378
0.00147344881
0.00160369932
0.00135377708
0.00147344881
0.00124382495
0.00135377708
0.00114280299
0.00124382494
0.00104998591
0.00114280299
0.00104998591
0.00524992956
0.00571401494
0.00482353664
0.00524992956
0.00443177483
0.00482353664
0.00407183144
0.00443177483
0.00374112222
0.00407183144
0.0034372728
0.00374112222
0.00315810167
0.0034372728
0.00290160447
0.00315810167
0.00266593967
0.00290160447
0.00244941527
0.00266593967
0.00225047673
0.00244941528
0.00206769574
0.00225047673
0.00189975999
0.00206769574
0.00174546378
0.00189975999
0.00160369933
0.00174546378
0.00147344881
0.00160369933
0.00135377708
0.00147344881
0.00124382494
0.00135377708
0.00114280299
0.00124382494
0.00114280299
0.00571401494
0.00621912472
0.00524992957
0.00571401494
0.00482353664
0.00524992957
0.00443177483
0.00482353664
0.00407183144
0.00443177483
0.00374112222
0.00407183144
0.0034372728
0.00374112222
0.00315810167
0.0034372728
0.00290160447
0.00315810167
0.00266593967
0.00290160447
0.00244941528
0.00266593967
0.00225047673
0.00244941528
0.00206769574
0.00225047673
0.00189975999
0.00206769573
0.00174546378
0.00189975999
0.00160369933
0.00174546378
0.00147344881
0.00160369933
0.00135377708
0.00147344881
0.00124382494
0.00135377708
0.00124382494
0.00621912472
0.0067688854
0.00571401494
0.00621912472
0.00524992956
0.00571401494
0.00482353664
0.00524992956
0.00443177483
0.00482353663
0.00407183144
0.00443177483
0.00374112222
0.00407183144
0.0034372728
0.00374112222
0.00315810166
0.0034372728
0.00290160447
0.00315810166
0.00266593967
0.00290160447
0.00244941528
0.00266593967
0.00225047673
0.00244941528
0.00206769573
0.00225047673
0.00189975999
0.00206769573
0.00174546378
0.00189975999
0.00160369933
0.00174546378
0.00147344881
0.00160369933
0.00135377708
0.00147344881
0.00135377708
0.00676888539
0.00736724404
0.00621912472
0.00676888539
0.00571401493
0.00621912472
0.00524992955
0.00571401493
0.00482353663
0.00524992955
0.00443177483
0.00482353664
0.00407183144
0.00443177483
0.00374112222
0.00407183144
0.0034372728
0.00374112222
0.00315810166
0.0034372728
0.00290160447
0.00315810167
0.00266593967
0.00290160447
0.00244941527
0.00266593967
0.00225047673
0.00244941527
0.00206769573
0.00225047673
0.00189975999
0.00206769573
0.00174546378
0.00189975999
0.00160369933
0.00174546378
0.00147344881
0.00160369933
0.00147344881
0.00736724404
0.00801849664
0.0067688854
0.00736724404
0.00621912472
0.00676888541
0.00571401493
0.00621912472
0.00524992956
0.00571401493
0.00482353664
0.00524992956
0.00443177483
0.00482353664
0.00407183144
0.00443177483
0.00374112222
0.00407183144
0.0034372728
0.00374112222
0.00315810167
0.00343727281
0.00290160447
0.00315810167
0.00266593967
0.00290160447
0.00244941527
0.00266593966
0.00225047673
0.00244941527
0.00206769574
0.00225047673
0.00189975999
0.00206769574
0.00174546378
0.00189975999
0.00160369933
0.00174546378
0.00160369933
0.00801849664
0.00872731892
0.00736724405
0.00801849663
0.00676888541
0.00736724405
0.00621912472
0.0067688854
0.00571401494
0.00621912472
0.00524992957
0.00571401494
0.00482353664
0.00524992957
0.00443177483
0.00482353664
0.00407183144
0.00443177483
0.00374112222
0.00407183144
0.00343727281
0.00374112222
0.00315810167
0.00343727281
0.00290160447
0.00315810167
0.00266593967
0.00290160447
0.00244941527
0.00266593966
0.00225047673
0.00244941527
0.00206769574
0.00225047673
0.00189975999
0.00206769574
0.00174546378
0.00189975999
0.00174546378
0.00872731891
0.00949879995
0.00801849663
0.00872731891
0.00736724404
0.00801849664
0.00676888539
0.00736724404
0.00621912472
0.00676888539
0.00571401494
0.00621912472
0.00524992956
0.00571401494
0.00482353663
0.00524992956
0.00443177482
0.00482353663
0.00407183144
0.00443177482
0.00374112222
0.00407183144
0.0034372728
0.00374112222
0.00315810166
0.0034372728
0.00290160447
0.00315810166
0.00266593966
0.00290160447
0.00244941528
0.00266593967
0.00225047673
0.00244941528
0.00206769573
0.00225047673
0.00189975999
0.00206769573
0.00189975999
0.00949879995
0.00990086821
0.00872731892
0.00909673168
0.00801849664
0.00835790615
0.00736724404
0.00767908712
0.0067688854
0.00705540095
0.00621912472
0.00648236984
0.00571401494
0.00595587961
0.00524992956
0.00547215027
0.00482353663
0.00502770885
0.00443177483
0.00461936442
0.00407183144
0.00424418524
0.00374112222
0.00389947765
0.0034372728
0.0035827668
0.00315810166
0.00329177881
0.00290160447
0.00302442452
0.00266593967
0.00277878442
0.00244941528
0.00255309492
0.00225047673
0.00234573564
0.00206769573
0.00215521783
0.00198017364
0.00206769573
0.00189975999
0.00225047673
0.00206769573
0.00244941528
0.00225047673
0.00266593967
0.00244941528
0.00290160447
0.00266593967
0.00315810166
0.00290160447
0.0034372728
0.00315810166
0.00374112222
0.0034372728
0.00407183144
0.00374112222
0.00443177483
0.00407183144
0.00482353663
0.00443177482
0.00524992956
0.00482353663
0.00571401494
0.00524992956
0.00621912472
0.00571401494
0.0067688854
0.00621912472
0.00736724404
0.00676888539
0.00801849664
0.00736724404
0.00872731892
0.00801849664
0.00949879995
0.00872731891
0.00949879995
0.00990086821
0.00189975999
0.00174546378
0.00206769573
0.00189975999
0.00225047673
0.00206769574
0.00244941528
0.00225047673
0.00266593966
0.00244941527
0.00290160447
0.00266593966
0.00315810166
0.00290160447
0.0034372728
0.00315810167
0.00374112222
0.00343727281
0.00407183144
0.00374112222
0.00443177482
0.00407183144
0.00482353663
0.00443177483
0.00524992956
0.00482353664
0.00571401494
0.00524992957
0.00621912472
0.00571401494
0.00676888539
0.00621912472
0.00736724404
0.0067688854
0.00801849663
0.00736724405
0.00872731891
0.00801849663
0.00872731892
0.00909673168
0.00174546378
0.00160369933
0.00189975999
0.00174546378
0.00206769574
0.00189975999
0.00225047673
0.00206769574
0.00244941527
0.00225047673
0.00266593967
0.00244941527
0.00290160447
0.00266593966
0.00315810167
0.00290160447
0.00343727281
0.00315810167
0.00374112222
0.00343727281
0.00407183144
0.00374112222
0.00443177483
0.00407183144
0.00482353664
0.00443177483
0.00524992957
0.00482353664
0.00571401494
0.00524992956
0.00621912472
0.00571401493
0.00676888541
0.00621912472
0.00736724405
0.00676888541
0.00801849664
0.00736724404
0.00801849664
0.00835790615
0.00160369933
0.00147344881
0.00174546378
0.00160369933
0.00189975999
0.00174546378
0.00206769574
0.00189975999
0.00225047673
0.00206769573
0.00244941527
0.00225047673
0.00266593967
0.00244941527
0.00290160447
0.00266593967
0.00315810167
0.00290160447
0.0034372728
0.00315810167
0.00374112222
0.0034372728
0.00407183144
0.00374112222
0.00443177483
0.00407183144
0.00482353664
0.00443177483
0.00524992956
0.00482353664
0.00571401493
0.00524992955
0.00621912472
0.00571401493
0.0067688854
0.00621912472
0.00736724404
0.00676888539
0.00736724404
0.00767908712
0.00147344881
0.00135377708
0.00160369933
0.00147344881
0.00174546378
0.00160369933
0.00189975999
0.00174546378
0.00206769573
0.00189975999
0.00225047673
0.00206769573
0.00244941527
0.00225047673
0.00266593967
0.00244941528
0.00290160447
0.00266593967
0.00315810166
0.00290160447
0.0034372728
0.00315810166
0.00374112222
0.0034372728
0.00407183144
0.00374112222
0.00443177483
0.00407183144
0.00482353663
0.00443177483
0.00524992955
0.00482353663
0.00571401493
0.00524992956
0.00621912472
0.00571401494
0.00676888539
0.00621912472
0.0067688854
0.00705540095
0.00135377708
0.00124382494
0.00147344881
0.00135377708
0.00160369933
0.00147344881
0.00174546378
0.00160369933
0.00189975999
0.00174546378
0.00206769573
0.00189975999
0.00225047673
0.00206769573
0.00244941528
0.00225047673
0.00266593967
0.00244941528
0.00290160447
0.00266593967
0.00315810166
0.00290160447
0.0034372728
0.00315810167
0.00374112222
0.0034372728
0.00407183144
0.00374112222
0.00443177483
0.00407183144
0.00482353664
0.00443177483
0.00524992956
0.00482353664
0.00571401494
0.00524992957
0.00621912472
0.00571401494
0.00621912472
0.00648236984
0.00124382494
0.00114280299
0.00135377708
0.00124382494
0.00147344881
0.00135377708
0.00160369933
0.00147344881
0.00174546378
0.00160369933
0.00189975999
0.00174546378
0.00206769574
0.00189975999
0.00225047673
0.00206769574
0.00244941528
0.00225047673
0.00266593967
0.00244941528
0.00290160447
0.00266593967
0.00315810167
0.00290160447
0.0034372728
0.00315810167
0.00374112222
0.0034372728
0.00407183144
0.00374112222
0.00443177483
0.00407183144
0.00482353664
0.00443177483
0.00524992957
0.00482353664
0.00571401494
0.00524992956
0.00571401494
0.00595587961
0.00114280299
0.00104998591
0.00124382494
0.00114280299
0.00135377708
0.00124382494
0.00147344881
0.00135377708
0.00160369933
0.00147344881
0.00174546378
0.00160369932
0.00189975999
0.00174546378
0.00206769574
0.00189975999
0.00225047673
0.00206769574
0.00244941527
0.00225047673
0.00266593967
0.00244941527
0.00290160447
0.00266593967
0.00315810167
0.00290160447
0.0034372728
0.00315810167
0.00374112222
0.0034372728
0.00407183144
0.00374112222
0.00443177483
0.00407183144
0.00482353664
0.00443177483
0.00524992956
0.00482353663
0.00524992956
0.00547215027
0.00104998591
0.000964707326
0.00114280299
0.00104998591
0.00124382495
0.00114280299
0.00135377708
0.00124382494
0.00147344881
0.00135377708
0.00160369932
0.00147344881
0.00174546378
0.00160369932
0.00189975999
0.00174546378
0.00206769574
0.00189975999
0.00225047673
0.00206769573
0.00244941527
0.00225047673
0.00266593967
0.00244941527
0.00290160447
0.00266593967
0.00315810167
0.00290160447
0.0034372728
0.00315810166
0.00374112222
0.0034372728
0.00407183144
0.00374112222
0.00443177483
0.00407183144
0.00482353663
0.00443177482
0.00482353663
0.00502770885
0.000964707326
0.000886354965
0.00104998591
0.000964707327
0.00114280299
0.00104998591
0.00124382494
0.00114280299
0.00135377708
0.00124382494
0.00147344881
0.00135377708
0.00160369932
0.00147344881
0.00174546378
0.00160369933
0.00189975999
0.00174546378
0.00206769573
0.00189975999
0.00225047673
0.00206769573
0.00244941527
0.00225047673
0.00266593967
0.00244941527
0.00290160447
0.00266593967
0.00315810166
0.00290160447
0.0034372728
0.00315810166
0.00374112222
0.0034372728
0.00407183144
0.00374112222
0.00443177482
0.00407183144
0.00443177483
0.00461936442
0.000886354966
0.000814366288
0.000964707328
0.000886354966
0.00104998591
0.000964707329
0.00114280299
0.00104998591
0.00124382494
0.00114280299
0.00135377708
0.00124382494
0.00147344881
0.00135377708
0.00160369933
0.00147344881
0.00174546379
0.00160369933
0.00189975999
0.00174546379
0.00206769573
0.00189975999
0.00225047673
0.00206769574
0.00244941528
0.00225047673
0.00266593967
0.00244941528
0.00290160447
0.00266593967
0.00315810167
0.00290160447
0.00343727281
0.00315810167
0.00374112222
0.00343727281
0.00407183144
0.00374112222
0.00407183144
0.00424418524
0.000814366289
0.000748224444
0.000886354967
0.000814366289
0.000964707329
0.000886354967
0.00104998591
0.000964707329
0.00114280299
0.00104998591
0.00124382494
0.00114280299
0.00135377708
0.00124382494
0.00147344881
0.00135377708
0.00160369933
0.00147344881
0.00174546378
0.00160369933
0.00189975999
0.00174546378
0.00206769574
0.00189975999
0.00225047673
0.00206769574
0.00244941528
0.00225047673
0.00266593967
0.00244941528
0.00290160447
0.00266593967
0.00315810167
0.00290160447
0.00343727281
0.00315810167
0.00374112222
0.0034372728
0.00374112222
0.00389947765
0.000748224444
0.00068745456
0.000814366289
0.000748224444
0.000886354967
0.000814366289